// Generated for: spectre
// Generated on: May  9 11:42:05 2023
// Design library name: PLL
// Design cell name: VCO
// Design view name: schematic
simulator lang=spectre
global 0

// Library name: PLL
// Cell name: VCO
// View name: schematic
M17 (net2 net5 net6 net6) p18 w=1.08 l=0.18 as=0.1984 ad=0.1984 ps=1.88 \
        pd=1.88 m=1
M18 (out net1 net6 net6) p18 w=5 l=0.18 as=0.1984 ad=0.1984 ps=1.88 \
        pd=1.88 m=1
M12 (net1 net41 net2 net2) p18 w=2.4 l=0.18 as=0.1984 ad=0.1984 ps=1.88 \
        pd=1.88 m=1
M4 (net41 net19 net2 net2) p18 w=0.84 l=0.18 as=0.1984 ad=0.1984 ps=1.88 \
        pd=1.88 m=1
M3 (net19 net15 net2 net2) p18 w=0.84 l=0.18 as=0.1984 ad=0.1984 ps=1.88 \
        pd=1.88 m=1
M2 (net15 net11 net2 net2) p18 w=0.84 l=0.18 as=0.1984 ad=0.1984 ps=1.88 \
        pd=1.88 m=1
M1 (net11 net7 net2 net2) p18 w=0.84 l=0.18 as=0.1984 ad=0.1984 ps=1.88 \
        pd=1.88 m=1
M0 (net7 net3 net2 net2) p18 w=0.84 l=0.18 as=0.1984 ad=0.1984 ps=1.88 \
        pd=1.88 m=1
M6 (net3 net1 net2 net2) p18 w=0.84 l=0.18 as=0.1984 ad=0.1984 ps=1.88 \
        pd=1.88 m=1
M15 (net5 net5 net6 net6) p18 w=0.84 l=0.18 as=0.1984 ad=0.1984 ps=1.88 \
        pd=1.88 m=1
M19 (net5 vctrl 0 0) n18 w=0.84 l=0.18 as=0.1984 ad=0.1984 ps=1.88 pd=1.88 \
        m=1
M16 (out net1 0 0) n18 w=5 l=0.18 as=0.1984 ad=0.1984 ps=1.88 pd=1.88 m=1
M14 (net21 vctrl 0 0) n18 w=1.08 l=0.18 as=0.1984 ad=0.1984 ps=1.88 \
        pd=1.88 m=1
M13 (net1 net41 net21 net21) n18 w=1.2 l=0.18 as=0.1984 ad=0.1984 ps=1.88 \
        pd=1.88 m=1
M11 (net41 net19 net21 net21) n18 w=0.42 l=0.18 as=0.1984 ad=0.1984 \
        ps=1.88 pd=1.88 m=1
M10 (net3 net1 net21 net21) n18 w=0.42 l=0.18 as=0.1984 ad=0.1984 ps=1.88 \
        pd=1.88 m=1
M9 (net19 net15 net21 net21) n18 w=0.42 l=0.18 as=0.1984 ad=0.1984 ps=1.88 \
        pd=1.88 m=1
M8 (net15 net11 net21 net21) n18 w=0.42 l=0.18 as=0.1984 ad=0.1984 ps=1.88 \
        pd=1.88 m=1
M7 (net11 net7 net21 net21) n18 w=0.42 l=0.18 as=0.1984 ad=0.1984 ps=1.88 \
        pd=1.88 m=1
M5 (net7 net3 net21 net21) n18 w=0.42 l=0.18 as=0.1984 ad=0.1984 ps=1.88 \
        pd=1.88 m=1
V2 (net6 0) vsource dc=1.8 type=dc
C4 (out 0) capacitor c=24f
simulatorOptions options psfversion="1.4.0" reltol=1e-3 vabstol=1e-6 \
    iabstol=1e-12 temp=27 tnom=27 scalem=1.0 scale=1.0 gmin=1e-12 rforce=1 \
    maxnotes=5 maxwarns=5 digits=5 cols=80 pivrel=1e-3 \
    sensfile="../psf/sens.output" checklimitdest=psf 
modelParameter info what=models where=rawfile
element info what=inst where=rawfile
outputParameter info what=output where=rawfile
designParamVals info what=parameters where=rawfile
primitives info what=primitives where=rawfile
subckts info what=subckts where=rawfile
saveOptions options save=allpub
