// Generated for: spectre
// Generated on: Apr 24 12:07:40 2024
// Design library name: lab2024
// Design cell name: tb_xort
// Design view name: schematic
simulator lang=spectre
global 0 vdd!
