// Generated for: spectre
// Generated on: Apr 15 18:09:07 2024
// Design library name: lab2024
// Design cell name: tb_invParam
// Design view name: schematic
simulator lang=spectre
global 0 vdd!
