// Generated for: spectre
// Design Netlist Generated on: Apr 15 14:43:34 2024
// Design library name: lab2024
// Design cell name: tb_ycircuitcustom
// Design view name: schematic
simulator lang=spectre
global 0 vdd!
